*Heading
** Job name: IDL_2D_1M_ALPHA_DYN Model name: IDL_2D_1M_ALPHA_DYN
** Generated by: Abaqus/CAE 2020
*Preprint, echo=NO, model=NO, history=NO, contact=NO
**
** PARTS
**
*Part, name=DAM
*End Part
**  
*Part, name=WATER
*End Part
**  
**
** ASSEMBLY
**
*Assembly, name=Assembly
**  
*Instance, name=DAM-1, part=DAM
   -0.574625,           0.,           0.
*Node
      1,           0.,           0.
      2, 0.0638471916,           0.
      3,  0.127694383,           0.
      4,  0.191541582,           0.
      5,  0.255388767,           0.
      6,  0.319235951,           0.
      7,  0.383083165,           0.
      8,  0.446930349,           0.
      9,  0.510777533,           0.
     10,  0.574624717,           0.
     11, 0.0137312366, 0.0500000007
     12, 0.0760527328, 0.0500000007
     13,  0.138374239, 0.0500000007
     14,  0.200695738, 0.0500000007
     15,  0.263017237, 0.0500000007
     16,  0.325338721, 0.0500000007
     17,  0.387660235, 0.0500000007
     18,  0.449981719, 0.0500000007
     19,  0.512303233, 0.0500000007
     20,  0.574624717, 0.0500000007
** ... 759 like lines cut
*Element, type=CPS6M
  1,   1,   2,  11, 211, 212, 213
  2,   2,  12,  11, 214, 215, 212
  3,   2,   3,  12, 216, 217, 214
  4,   3,  13,  12, 218, 219, 217
  5,   3,   4,  13, 220, 221, 218
  6,   4,  14,  13, 222, 223, 221
  7,   4,   5,  14, 224, 225, 222
  8,   5,  15,  14, 226, 227, 225
  9,   5,   6,  15, 228, 229, 226
 10,   6,  16,  15, 230, 231, 229
 11,   6,   7,  16, 232, 233, 230
 12,   7,  17,  16, 234, 235, 233
 13,   7,   8,  17, 236, 237, 234
 14,   8,  18,  17, 238, 239, 237
 15,   8,   9,  18, 240, 241, 238
 16,   9,  19,  18, 242, 243, 241
 17,   9,  10,  19, 244, 245, 242
 18,  10,  20,  19, 246, 247, 245
 19,  11,  12,  21, 215, 248, 249
 20,  12,  22,  21, 250, 251, 248
** ... 340 like lines cut
*Nset, nset=DAM_BODY, generate
   1,  779,    1
*Elset, elset=DAM_BODY, generate
   1,  360,    1
** Section: CONCRETE_WEST_C
*Solid Section, elset=DAM_BODY, material=CONCRETE_WEST_C
0.,
*End Instance
**  
*Instance, name=WATER-1, part=WATER
   -0.574625,           0.,           0.
*Node
      1,  0.574624717,           1.
      2,  0.574624717,  0.949999988
      3,  0.574624717,  0.899999976
      4,  0.574624717,  0.850000024
      5,  0.574624717,  0.800000012
      6,  0.574624717,         0.75
      7,  0.574624717,  0.699999988
      8,  0.574624717,  0.649999976
      9,  0.574624717,  0.600000024
     10,  0.574624717,  0.550000012
     11,  0.574624717,          0.5
     12,  0.574624717,  0.449999988
     13,  0.574624717,  0.400000006
     14,  0.574624717,  0.349999994
     15,  0.574624717,  0.300000012
     16,  0.574624717,         0.25
     17,  0.574624717,  0.200000003
     18,  0.574624717,  0.150000006
     19,  0.574624717,  0.100000001
     20,  0.574624717, 0.0500000007
** ... 4941 like lines cut
*Element, type=AC2D6
   1,    1,    2,   22, 1282, 1283, 1284
   2,    2,   23,   22, 1285, 1286, 1283
   3,    2,    3,   23, 1287, 1288, 1285
   4,    3,   24,   23, 1289, 1290, 1288
   5,    3,    4,   24, 1291, 1292, 1289
   6,    4,   25,   24, 1293, 1294, 1292
   7,    4,    5,   25, 1295, 1296, 1293
   8,    5,   26,   25, 1297, 1298, 1296
   9,    5,    6,   26, 1299, 1300, 1297
  10,    6,   27,   26, 1301, 1302, 1300
  11,    6,    7,   27, 1303, 1304, 1301
  12,    7,   28,   27, 1305, 1306, 1304
  13,    7,    8,   28, 1307, 1308, 1305
  14,    8,   29,   28, 1309, 1310, 1308
  15,    8,    9,   29, 1311, 1312, 1309
  16,    9,   30,   29, 1313, 1314, 1312
  17,    9,   10,   30, 1315, 1316, 1313
  18,   10,   31,   30, 1317, 1318, 1316
  19,   10,   11,   31, 1319, 1320, 1317
  20,   11,   32,   31, 1321, 1322, 1320
** ... 2380 like lines cut
*Nset, nset=Set-1, generate
    1,  4961,     1
*Elset, elset=Set-1, generate
    1,  2400,     1
** Section: WATER_WEST
*Solid Section, elset=Set-1, material=WATER_WEST
0.,
*End Instance
**  
*Nset, nset=CREST, instance=DAM-1
 210,
*Nset, nset=DAM_ABUTMENT, instance=DAM-1
   1,   2,   3,   4,   5,   6,   7,   8,   9,  10, 211, 216, 220, 224, 228, 232
 236, 240, 244
*Elset, elset=DAM_ABUTMENT, instance=DAM-1, generate
  1,  17,   2
*Nset, nset=DAM_BODY, instance=DAM-1, generate
   1,  779,    1
*Elset, elset=DAM_BODY, instance=DAM-1, generate
   1,  360,    1
*Nset, nset=DAM_BOTTOM, instance=DAM-1
 10,
*Nset, nset=DAM_FACE, instance=DAM-1
  10,  20,  30,  40,  50,  60,  70,  80,  90, 100, 110, 120, 130, 140, 150, 160
 170, 180, 190, 200, 210, 246, 274, 302, 330, 358, 386, 414, 442, 470, 498, 526
 554, 582, 610, 638, 666, 694, 722, 750, 778
*Elset, elset=DAM_FACE, instance=DAM-1, generate
  18,  360,   18
*Nset, nset=WATER_BODY, instance=WATER-1, generate
    1,  4961,     1
*Elset, elset=WATER_BODY, instance=WATER-1, generate
    1,  2400,     1
*Nset, nset=WATER_BOTTOM, instance=WATER-1
 21,
*Nset, nset=WATER_FACE, instance=WATER-1
    1,    2,    3,    4,    5,    6,    7,    8,    9,   10,   11,   12,   13,   14,   15,   16
   17,   18,   19,   20,   21, 1282, 1287, 1291, 1295, 1299, 1303, 1307, 1311, 1315, 1319, 1323
 1327, 1331, 1335, 1339, 1343, 1347, 1351, 1355, 1359
*Elset, elset=WATER_FACE, instance=WATER-1, generate
  1,  39,   2
*Nset, nset=WATER_ZERO, instance=WATER-1
    1,   22,   43,   64,   85,  106,  127,  148,  169,  190,  211,  232,  253,  274,  295,  316
  337,  358,  379,  400,  421,  442,  463,  484,  505,  526,  547,  568,  589,  610,  631,  652
  673,  694,  715,  736,  757,  778,  799,  820,  841,  862,  883,  904,  925,  946,  967,  988
 1009, 1030, 1051, 1072, 1093, 1114, 1135, 1156, 1177, 1198, 1219, 1240, 1261, 1284, 1364, 1425
 1486, 1547, 1608, 1669, 1730, 1791, 1852, 1913, 1974, 2035, 2096, 2157, 2218, 2279, 2340, 2401
 2462, 2523, 2584, 2645, 2706, 2767, 2828, 2889, 2950, 3011, 3072, 3133, 3194, 3255, 3316, 3377
 3438, 3499, 3560, 3621, 3682, 3743, 3804, 3865, 3926, 3987, 4048, 4109, 4170, 4231, 4292, 4353
 4414, 4475, 4536, 4597, 4658, 4719, 4780, 4841, 4902
*Elset, elset=WATER_ZERO, instance=WATER-1, generate
    1,  2361,    40
*Elset, elset=_DAM_FACE_S1, internal, instance=DAM-1, generate
  18,  360,   18
*Surface, type=ELEMENT, name=DAM_FACE
_DAM_FACE_S1, S1
*Elset, elset=_DOWN_FACE_S3, internal, instance=DAM-1, generate
   1,  343,   18
*Surface, type=ELEMENT, name=DOWN_FACE
_DOWN_FACE_S3, S3
*Elset, elset=_WATER_BOTTOM_S1, internal, instance=WATER-1, generate
   40,  2400,    40
*Surface, type=ELEMENT, name=WATER_BOTTOM
_WATER_BOTTOM_S1, S1
*Elset, elset=_WATER_FACE_S1, internal, instance=WATER-1, generate
  1,  39,   2
*Surface, type=ELEMENT, name=WATER_FACE
_WATER_FACE_S1, S1
*Elset, elset=_WATER_INFINITE_S2, internal, instance=WATER-1, generate
 2362,  2400,     2
*Surface, type=ELEMENT, name=WATER_INFINITE
_WATER_INFINITE_S2, S2
** Constraint: DAM_WATER
*Tie, name=DAM_WATER, adjust=yes, position tolerance=0.01, type=SURFACE TO SURFACE
WATER_FACE, DAM_FACE
** 
** INTEGRATED OUTPUT SECTIONS
** 
*Integrated Output Section, name=DAM_FACE, surface=DAM_FACE, project orientation=NO
*End Assembly
*Amplitude, name=CONSTANT, definition=PERIODIC
1, 6.28318530717959,              0.,              1.
             0.,              0.
*Amplitude, name="IDL_1M_0,75", definition=PERIODIC
1,         1583.36,              0.,              0.
             1.,              0.
*Amplitude, name=TEMP, definition=PERIODIC
1, 229.336263712055,              0.,              0.
             1.,              0.
*Amplitude, name=U(A)
            0.5,    -0.101321184,           0.502,    -0.100515452,           0.504,    -0.099719293,           0.506,    -0.098932556
          0.508,    -0.098155093,            0.51,    -0.097386759,           0.512,    -0.096627411,           0.514,    -0.095876909
          0.516,    -0.095135118,           0.518,    -0.094401902,            0.52,     -0.09367713,           0.522,    -0.092960673
          0.524,    -0.092252403,           0.526,    -0.091552198,           0.528,    -0.090859934,            0.53,    -0.090175493
          0.532,    -0.089498756,           0.534,    -0.088829609,           0.536,    -0.088167938,           0.538,    -0.087513633
           0.54,    -0.086866584,           0.542,    -0.086226685,           0.544,    -0.085593831,           0.546,    -0.084967918
          0.548,    -0.084348846,            0.55,    -0.083736515,           0.552,    -0.083130828,           0.554,    -0.082531689
          0.556,    -0.081939004,           0.558,     -0.08135268,            0.56,    -0.080772627,           0.562,    -0.080198756
          0.564,    -0.079630979,           0.566,     -0.07906921,           0.568,    -0.078513365,            0.57,    -0.077963361
          0.572,    -0.077419116,           0.574,    -0.076880549,           0.576,    -0.076347584,           0.578,    -0.075820141
           0.58,    -0.075298145,           0.582,    -0.074781521,           0.584,    -0.074270196,           0.586,    -0.073764097
          0.588,    -0.073263154,            0.59,    -0.072767296,           0.592,    -0.072276456,           0.594,    -0.071790565
          0.596,    -0.071309558,           0.598,    -0.070833369,             0.6,    -0.070361933,           0.602,    -0.069895189
          0.604,    -0.069433073,           0.606,    -0.068975525,           0.608,    -0.068522485,            0.61,    -0.068073894
          0.612,    -0.067629693,           0.614,    -0.067189827,           0.616,    -0.066754237,           0.618,     -0.06632287
           0.62,    -0.065895671,           0.622,    -0.065472586,           0.624,    -0.065053562,           0.626,    -0.064638549
          0.628,    -0.064227494,            0.63,    -0.063820347,           0.632,     -0.06341706,           0.634,    -0.063017584
          0.636,     -0.06262187,           0.638,    -0.062229872,            0.64,    -0.061841543,           0.642,    -0.061456837
          0.644,    -0.061075711,           0.646,    -0.060698118,           0.648,    -0.060324017,            0.65,    -0.059953363
          0.652,    -0.059586115,           0.654,    -0.059222231,           0.656,    -0.058861671,           0.658,    -0.058504393
** ... 1793 like lines cut
*Amplitude, name=U(A)_1
          0.335,    -0.225709921,            0.34,    -0.219120207,           0.345,     -0.21281492,            0.35,    -0.206777926
          0.355,    -0.200994215,            0.36,    -0.195449814,           0.365,    -0.190131701,            0.37,    -0.185027728
          0.375,    -0.180126549,            0.38,    -0.175417562,           0.385,    -0.170890848,            0.39,     -0.16653712
          0.395,    -0.162347674,             0.4,    -0.158314349,           0.405,    -0.154429483,            0.41,    -0.150685877
          0.415,    -0.147076765,            0.42,    -0.143595782,           0.425,    -0.140236932,            0.43,     -0.13699457
          0.435,    -0.133863369,            0.44,    -0.130838305,           0.445,    -0.127914637,            0.45,    -0.125087881
          0.455,    -0.122353802,            0.46,    -0.119708393,           0.465,    -0.117147859,            0.47,     -0.11466861
          0.475,    -0.112267239,            0.48,     -0.10994052,           0.485,     -0.10768539,            0.49,    -0.105498942
          0.495,    -0.103378414,             0.5,    -0.101321184,           0.505,    -0.099324756,            0.51,    -0.097386759
          0.515,    -0.095504933,            0.52,     -0.09367713,           0.525,      -0.0919013,            0.53,    -0.090175493
          0.535,    -0.088497846,            0.54,    -0.086866584,           0.545,    -0.085280013,            0.55,    -0.083736515
          0.555,    -0.082234546,            0.56,    -0.080772627,           0.565,    -0.079349349,            0.57,    -0.077963361
          0.575,    -0.076613371,            0.58,    -0.075298145,           0.585,    -0.074016498,            0.59,    -0.072767296
          0.595,    -0.071549455,             0.6,    -0.070361933,           0.605,    -0.069203732,            0.61,    -0.068073894
          0.615,    -0.066971501,            0.62,    -0.065895671,           0.625,    -0.064845558,            0.63,    -0.063820347
          0.635,    -0.062819259,            0.64,    -0.061841543,           0.645,    -0.060886475,            0.65,    -0.059953363
          0.655,    -0.059041538,            0.66,    -0.058150358,           0.665,    -0.057279204,            0.67,     -0.05642748
          0.675,    -0.055594614,            0.68,    -0.054780052,           0.685,    -0.053983262,            0.69,     -0.05320373
          0.695,    -0.052440962,             0.7,    -0.051694481,           0.705,    -0.050963827,            0.71,    -0.050248554
          0.715,    -0.049548234,            0.72,    -0.048862454,           0.725,    -0.048190813,            0.73,    -0.047532925
** ... 1442 like lines cut
*Amplitude, name=U(A)_1_1
            50.,    -1.01321e-05,             60.,    -7.03619e-06,             70.,    -5.16945e-06,             80.,    -3.95786e-06
            90.,     -3.1272e-06,            100.,    -2.53303e-06,            110.,    -2.09341e-06,            120.,    -1.75905e-06
           130.,    -1.49883e-06,            140.,    -1.29236e-06,            150.,    -1.12579e-06,            160.,    -9.89465e-07
           170.,    -8.76481e-07,            180.,    -7.81799e-07,            190.,     -7.0167e-07,            200.,    -6.33257e-07
           210.,    -5.74383e-07,            220.,    -5.23353e-07,            230.,    -4.78834e-07,            240.,    -4.39762e-07
           250.,    -4.05285e-07,            260.,    -3.74709e-07,            270.,    -3.47466e-07,            280.,    -3.23091e-07
           290.,    -3.01193e-07,            300.,    -2.81448e-07,            310.,    -2.63583e-07,            320.,    -2.47366e-07
           330.,    -2.32601e-07,            340.,     -2.1912e-07,            350.,    -2.06778e-07,            360.,     -1.9545e-07
           370.,    -1.85028e-07,            380.,    -1.75418e-07,            390.,    -1.66537e-07,            400.,    -1.58314e-07
           410.,    -1.50686e-07,            420.,    -1.43596e-07,            430.,    -1.36995e-07,            440.,    -1.30838e-07
           450.,    -1.25088e-07,            460.,    -1.19708e-07,            470.,    -1.14669e-07,            480.,    -1.09941e-07
           490.,    -1.05499e-07,            500.,    -1.01321e-07,            510.,    -9.73868e-08,            520.,    -9.36771e-08
           530.,    -9.01755e-08,            540.,    -8.68666e-08,            550.,    -8.37365e-08,            560.,    -8.07726e-08
           570.,    -7.79634e-08,            580.,    -7.52981e-08,            590.,    -7.27673e-08,            600.,    -7.03619e-08
           610.,    -6.80739e-08,            620.,    -6.58957e-08,            630.,    -6.38203e-08,            640.,    -6.18415e-08
           650.,    -5.99534e-08,            660.,    -5.81504e-08,            670.,    -5.64275e-08,            680.,    -5.47801e-08
           690.,    -5.32037e-08,            700.,    -5.16945e-08,            710.,    -5.02486e-08,            720.,    -4.88625e-08
           730.,    -4.75329e-08,            740.,    -4.62569e-08,            750.,    -4.50316e-08,            760.,    -4.38544e-08
           770.,    -4.27227e-08,            780.,    -4.16343e-08,            790.,    -4.05869e-08,            800.,    -3.95786e-08
           810.,    -3.86074e-08,            820.,    -3.76715e-08,            830.,    -3.67692e-08,            840.,    -3.58989e-08
** ... 1442 like lines cut
*Amplitude, name=UNIT, definition=PERIODIC
1,         6.28319,              0.,              0.
             1.,              0.
*Amplitude, name=WESTERGAARD, definition=PERIODIC
1, 4.71238898038469,              0.,              0.
             1.,              0.
** 
** MATERIALS
** 
*Material, name=CONCRETE_CLASSIC
*Density
2500.,
*Elastic
 3.5e+10, 0.22
*Material, name=CONCRETE_WEST
*Density
 2301.65,
*Elastic
 1.37895e+10, 0.22
*Material, name=CONCRETE_WEST_C
*Damping, alpha=1.17663, beta=0.000781894
*Density
 2301.65,
*Elastic
 1.37895e+10, 0.22
*Material, name=CONCRETE_WEST_IDL_C20
*Damping, alpha=1.01835, beta=0.00093091
*Density
 2301.65,
*Elastic
 1.37895e+10, 0.22
*Material, name=CONCRETE_WEST_RIGID
*Damping, alpha=0.387356, beta=0.00158185
*Density
1.,
*Elastic
 9e+27, 0.22
*Material, name=Concrete_5_5m_Lumiei_2D
*Damping, alpha=0.387356, beta=0.00158185
*Density
2500.,
*Elastic
 3.5e+10, 0.22
*Material, name=Concrete_5_10m_Lumiei_2D
*Damping, alpha=0.406529, beta=0.000466128
*Density
2500.,
*Elastic
 3.5e+10, 0.22
*Material, name=Concrete_5_30m_Lumiei_2D
*Damping, alpha=0.412351, beta=0.000127374
*Density
2500.,
*Elastic
 3.5e+10, 0.22
*Material, name=ROCK_ML
*Density
0.,
*Elastic
 3.5e+10, 0.22
*Material, name=WATER
*Acoustic Medium
 2.15e+09,
*Density
1000.,
*Material, name=WATER_WEST
*Acoustic Medium
 2.06843e+09,
*Density
1000.,
** 
** BOUNDARY CONDITIONS
** 
** Name: ENCASTRE Type: Symmetry/Antisymmetry/Encastre
*Boundary
DAM_BODY, ENCASTRE
** Name: WATER_ZERO Type: Acoustic pressure
*Boundary
WATER_ZERO, 8, 8
** ----------------------------------------------------------------
** 
** STEP: HARMONIC
** 
*Step, name=HARMONIC, nlgeom=NO, inc=100000
*Dynamic,alpha=0,application=TRANSIENT FIDELITY
1e-05,3.,1e-05,0.007
** 
** BOUNDARY CONDITIONS
** 
** Name: ENCASTRE Type: Symmetry/Antisymmetry/Encastre
*Boundary, op=NEW
** Name: HARMONIC Type: Acceleration/Angular acceleration
*Boundary, op=NEW, amplitude=UNIT, type=ACCELERATION
DAM-1.DAM_BODY, 1, 1, 0.981
DAM-1.DAM_BODY, 2, 2
** Name: WATER_ZERO Type: Acoustic pressure
*Boundary, op=NEW
WATER_ZERO, 8, 8
** 
** INTERACTIONS
** 
** Interaction: INFINITE_HARMONIC
*Simpedance, nonreflecting=PLANAR
WATER_INFINITE
** 
** OUTPUT REQUESTS
** 
*Restart, write, frequency=0
** 
** FIELD OUTPUT: DAM_BODY
** 
*Output, field, frequency=1
*Node Output, nset=DAM_BODY
U, 
*Element Output, elset=DAM_BODY, directions=YES
S, 
** 
** FIELD OUTPUT: DAM_FACE
** 
*Element Output, elset=DAM_FACE, directions=YES
NFORC, P, SF
** 
** FIELD OUTPUT: WATER_BODY
** 
*Node Output, nset=WATER_BODY
POR, 
** 
** HISTORY OUTPUT: DAM_FACE_IS
** 
*Output, history, frequency=1
*Integrated Output, section=DAM_FACE
SOF, SOM
** 
** HISTORY OUTPUT: CREST
** 
*Node Output, nset=CREST
AT, UT
** 
** HISTORY OUTPUT: DAM_BOTTOM
** 
*Node Output, nset=DAM_BOTTOM
AT, UT
** 
** HISTORY OUTPUT: WATER_BOTTOM
** 
*Node Output, nset=WATER_BOTTOM
POR, 
** 
** HISTORY OUTPUT: WATER_FACE
** 
*Node Output, nset=WATER_FACE
POR, 
*End Step
